
Circuit: *

Doing analysis at TEMP = 27.000000 and TNOM = 27.000000


No. of Data Rows : 1
********************************************
Operating point
********************************************
op_TAB
@gb[i] = -2.10962e-03
@id[current] = 1.040860e-03
@r1[i] = -2.01567e-03
@r2[i] = -2.10962e-03
@r3[i] = -9.39470e-05
@r4[i] = 8.578007e-04
@r5[i] = 3.150480e-03
@r6[i] = -1.15787e-03
@r7[i] = -1.15787e-03
hc#branch = 2.198733e-03
v1 = 1.726209e+00
v2 = -2.92429e-01
v3 = -4.52814e+00
v4 = 9.535580e+00
v5 = 9.279827e-06
v6 = -1.19150e+00
v6#branch = -1.15787e-03
v7 = -3.52221e+00
v8 = -1.19150e+00
va#branch = -2.01567e-03
op_END
ngspice-31 done
