
Circuit: *

Doing analysis at TEMP = 27.000000 and TNOM = 27.000000


No. of Data Rows : 1
********************************************
Operating point
********************************************
op_TAB
@c[i] = 0.000000e+00
@gb[i] = -2.24935e-04
@r1[i] = 2.149178e-04
@r2[i] = -2.24935e-04
@r3[i] = -1.00169e-05
@r4[i] = 1.233378e-03
@r5[i] = -2.24935e-04
@r6[i] = 1.018460e-03
@r7[i] = 1.018460e-03
hd#branch = -1.01846e-03
v1 = 5.248421e+00
v2 = 5.033187e+00
v3 = 4.581562e+00
v4 = -2.05008e+00
v5 = 5.064367e+00
v6 = 5.745178e+00
v6#branch = 1.018460e-03
v7 = -2.05008e+00
v8 = -3.09813e+00
vs#branch = -2.14918e-04
op_END
ngspice-31 done
