
Circuit: *

********************************************
Transient analysis
********************************************
Doing analysis at TEMP = 27.000000 and TNOM = 27.000000


Initial Transient Solution
--------------------------

Node                                   Voltage
----                                   -------
v1                                           0
v2                                           0
v3                                           0
v5                                           0
v6                                     8.84331
v4                                           0
v7                                           0
v8                                           0
hd#branch                                    0
v6#branch                                    0
vs#branch                                    0


No. of Data Rows : 1012

The file "trans2.ps" may be printed on a postscript printer.
trans2_FIG
********************************************
Frequency analysis
********************************************
Doing analysis at TEMP = 27.000000 and TNOM = 27.000000


No. of Data Rows : 701

The file "acm.ps" may be printed on a postscript printer.
acm_FIG

The file "acp.ps" may be printed on a postscript printer.
acp_FIG
Doing analysis at TEMP = 27.000000 and TNOM = 27.000000


No. of Data Rows : 1

No. of Data Rows : 1
	Node                                  Voltage
	----                                  -------
	----	-------
	v8                               0.000000e+00
	v7                               0.000000e+00
	v4                               0.000000e+00
	v6                               0.000000e+00
	v5                               0.000000e+00
	v3                               0.000000e+00
	v2                               0.000000e+00
	v1                               0.000000e+00

	Source	Current
	------	-------

	@c[i]                            0.000000e+00
	@gb[i]                           0.000000e+00
	@r7[i]                           0.000000e+00
	@r6[i]                           0.000000e+00
	@r5[i]                           0.000000e+00
	@r4[i]                           0.000000e+00
	@r3[i]                           0.000000e+00
	@r2[i]                           0.000000e+00
	@r1[i]                           0.000000e+00
	vs#branch                        0.000000e+00
	v6#branch                        0.000000e+00
	hd#branch                        0.000000e+00

 Capacitor models (Fixed capacitor)
      model                     C

        cap                     0
         cj                     0
       cjsw                     0
       defw                 1e-05
       defl                     0
     narrow                     0
      short                     0
        del                     0
        tc1                     0
        tc2                     0
         di                     0
      thick                     0
     bv_max                 1e+99

 Resistor models (Simple linear resistor)
      model                     R

        rsh                     0
     narrow                     0
      short                     0
        tc1                     0
        tc2                     0
        tce                     0
       defw                 1e-05
          l                 1e-05
         kf                     0
         af                     0
          r                     0
     bv_max                 1e+99
         lf                     1
         wf                     1
         ef                     1

 Capacitor: Fixed capacitor
     device                     c
      model                     C
capacitance           1.04086e-06
      dtemp                     0
     bv_max                 1e+99
          i                     0
          p                     0

 CCVS: Linear current controlled current source
     device                    hd
          i                     0
          v                     0
          p                     0

 Resistor: Simple linear resistor
     device                    r7                    r6                    r5
      model                     R                     R                     R
 resistance               1029.05               2012.92               3026.71
         ac               1029.05               2012.92               3026.71
      dtemp                     0                     0                     0
     bv_max                 1e+99                 1e+99                 1e+99
      noisy                     1                     1                     1
          i                     0                     0                     0
          p                     0                     0                     0

 Resistor: Simple linear resistor
     device                    r4                    r3                    r2
      model                     R                     R                     R
 resistance                4106.1                3112.7               2007.81
         ac                4106.1                3112.7               2007.81
      dtemp                     0                     0                     0
     bv_max                 1e+99                 1e+99                 1e+99
      noisy                     1                     1                     1
          i                     0                     0                     0
          p                     0                     0                     0

 Resistor: Simple linear resistor
     device                    r1
      model                     R
 resistance               1001.47
         ac               1001.47
      dtemp                     0
     bv_max                 1e+99
      noisy                     1
          i                     0
          p                     0

 VCCS: Voltage controlled current source
     device                    gb
          m                     0
          i                     0
          v                     0
          p                     0

 Vsource: Independent voltage source
     device                    v6                    vs
         dc                     0                     0
      acmag                     0                     1
      pulse         -                     0
                                          1
                                       1000
        sin         -                     0
                                          1
                                       1000
        exp         -                     0
                                          1
                                       1000
        pwl         -                     0
                                          1
                                       1000
       sffm         -                     0
                                          1
                                       1000
         am         -                     0
                                          1
                                       1000
    trnoise         -                     0
                                          1
                                       1000
   trrandom         -                     0
                                          1
                                       1000
          i                     0                     0
          p                    -0                    -0


Total analysis time (seconds) = 0.15

Total elapsed time (seconds) = 0.199 

Total DRAM available = 1545.289 MB.
DRAM currently available =  142.781 MB.
Total ngspice program size =   22.773 MB.
Resident set size =   10.504 MB.
Shared ngspice pages =    7.852 MB.
Text (code) pages =    5.070 MB.
Stack = 0 bytes.
Library pages =    3.031 MB.

